Circuit: * Z:\home\vicko\git\TC2-R4052-2023\TC2\TSs\TS3\Simulaciones\TS3_butter.asc

.OP point found by inspection.
Ignoring empty pin current: Ix(u1:1)
Ignoring empty pin current: Ix(u1:2)
Ignoring empty pin current: Ix(u2:1)
Ignoring empty pin current: Ix(u2:2)
Ignoring empty pin current: Ix(u1:1)
Ignoring empty pin current: Ix(u1:2)
Ignoring empty pin current: Ix(u2:1)
Ignoring empty pin current: Ix(u2:2)

Date: Tue May 16 04:06:45 2023
Total elapsed time: 11.567 seconds.

tnom = 27
temp = 27
method = trap
totiter = 0
traniter = 0
tranpoints = 0
accept = 0
rejected = 0
matrix size = 7
fillins = 1
solver = Normal
Avg thread counts: 8.0/0.0/0.0/8.0
Matrix Compiler1: off
Matrix Compiler2: off
