Circuit: * Z:\home\vicko\git\TC2-R4052-2023\TC2\TSs\TS3\Simulaciones\TS3_desnormalizado.asc

.OP point found by inspection.
Ignoring empty pin current: Ix(u1:1)
Ignoring empty pin current: Ix(u1:2)
Ignoring empty pin current: Ix(u2:1)
Ignoring empty pin current: Ix(u2:2)
Ignoring empty pin current: Ix(u1:1)
Ignoring empty pin current: Ix(u1:2)
Ignoring empty pin current: Ix(u2:1)
Ignoring empty pin current: Ix(u2:2)

Date: Sun May 14 08:18:10 2023
Total elapsed time: 0.089 seconds.

tnom = 27
temp = 27
method = trap
totiter = 0
traniter = 0
tranpoints = 0
accept = 0
rejected = 0
matrix size = 7
fillins = 0
solver = Normal
Avg thread counts: 8.0/0.0/0.0/1.2
Matrix Compiler1:      14 opcodes
Matrix Compiler2:      37 opcodes
