Circuit: * D:\Users\Vicko\Google Drive\Teoria_de_Circuitos_II\GitHub\TC2\TPs\TP1\Ejercicio_5\Ejercicio_5_C.asc

Ignoring empty pin current: Ix(u1:1)
Ignoring empty pin current: Ix(u1:2)
Ignoring empty pin current: Ix(u2:1)
Ignoring empty pin current: Ix(u2:2)

Date: Tue Apr 26 06:04:11 2022
Total elapsed time: 4.651 seconds.

tnom = 27
temp = 27
method = trap
totiter = 0
traniter = 0
tranpoints = 0
accept = 0
rejected = 0
matrix size = 6
fillins = 9
solver = Normal

