Circuit: * D:\Users\Vicko\Google Drive\Teoria_de_Circuitos_II\TPs\2022\TP1\Ejercicio_5\Ejercicio_5_A.asc

Ignoring empty pin current: Ix(u1:1)
Ignoring empty pin current: Ix(u1:2)
Ignoring empty pin current: Ix(u2:1)
Ignoring empty pin current: Ix(u2:2)

Date: Sun Apr 24 09:36:14 2022
Total elapsed time: 4.559 seconds.

tnom = 27
temp = 27
method = trap
totiter = 0
traniter = 0
tranpoints = 0
accept = 0
rejected = 0
matrix size = 6
fillins = 6
solver = Normal

