Circuit: * D:\Users\Vicko\Google Drive\Teoria_de_Circuitos_II\GitHub\TC2\TSs\TS2\TS2.asc

Ignoring empty pin current: Ix(u1:1)
Ignoring empty pin current: Ix(u1:2)
Ignoring empty pin current: Ix(u2:1)
Ignoring empty pin current: Ix(u2:2)
Ignoring empty pin current: Ix(u3:1)
Ignoring empty pin current: Ix(u3:2)

Date: Tue May 10 18:02:53 2022
Total elapsed time: 6.480 seconds.

tnom = 27
temp = 27
method = trap
totiter = 0
traniter = 0
tranpoints = 0
accept = 0
rejected = 0
matrix size = 8
fillins = 8
solver = Normal

